28
	Energy:      75.8148221
Zn        -0.86418        2.51376        0.03610
Zn        -3.39846       -7.08822       -0.00217
Zn         4.18659       -6.03667       -0.00926
N         -0.60591        0.65076        0.02751
N         -2.65081       -5.36216        0.00425
N          2.99759       -4.57910       -0.00102
C         -1.57511       -0.28800        0.02487
C         -0.99304       -1.54323        0.01846
C          0.36346       -1.35517        0.01720
C          0.58212        0.01107        0.02287
C         -1.56382       -2.82051        0.01373
C         -0.69414       -3.95222        0.00743
C          0.73117       -3.75462        0.00610
C          1.26018       -2.42900        0.01110
C         -2.95501       -3.00051        0.01508
C         -3.47887       -4.28887        0.01023
C         -1.29824       -5.23167        0.00274
C          1.66054       -4.82148       -0.00002
C          2.64787       -2.22376        0.00986
C          3.50245       -3.32101        0.00373
H         -3.63594       -2.15978        0.01981
H         -0.72358       -6.14176       -0.00213
H          1.35512       -5.85357       -0.00408
H          3.07441       -1.22949        0.01357
H          1.53704        0.51828        0.02363
H         -2.63199       -0.05969        0.02750
H         -4.55037       -4.43817        0.01122
H          4.57416       -3.17319        0.00272
