10
	Energy:      40.4554160
Zn        -0.64595        2.50773        0.50850
Zn        -2.11300       -3.03372       -0.35065
Zn         1.38078       -2.84886       -0.38482
N         -0.55065        0.65289        0.21023
N         -1.10384       -1.46344       -0.11801
N          0.21629       -1.39358       -0.13092
C         -1.56855       -0.21869        0.08946
C          0.55101       -0.10653        0.06873
H         -2.61559        0.04519        0.15074
H          1.56535        0.26644        0.10986
