12
	Energy:     130.0692148
Zn        -0.59541        2.30258        1.10956
Zn        -2.25419       -3.10596       -0.18262
Zn         1.21570       -2.92485       -0.64170
N         -0.56358        0.49462        0.59135
N         -1.19329       -1.57777        0.09536
N          0.11624       -1.50686       -0.07717
C         -1.59486       -0.36179        0.49983
C          0.49695       -0.24945        0.22397
N         -2.90161       -0.46394        0.66929
H          1.51506        0.11238        0.17695
H         -3.15194       -0.73583        1.56962
H         -3.40356       -0.30322       -0.16265
