13
	Energy:      98.2373563
Zn         0.16235        0.19507        0.02216
Zn        -1.39350       -5.29445       -1.01763
Zn         2.08982       -5.10982       -1.31218
N          0.22912       -1.64070       -0.38194
N         -0.36040       -3.74052       -0.78022
N          0.95539       -3.66968       -0.89124
C         -0.79606       -2.50664       -0.47107
C          1.31193       -2.39429       -0.64919
C         -2.28927       -2.51017       -0.32690
H         -2.63420       -1.48697       -0.07136
H         -2.76654       -2.82131       -1.28063
H         -2.59526       -3.20441        0.48463
H          2.32859       -2.02588       -0.66702
