22
	Energy:      31.3566798
Zn        -5.87587        1.31212        0.00000
Zn         5.00290        0.86618       -0.00000
N         -3.99640        1.23509       -0.00000
N          3.12343        0.94324        0.00000
C         -3.38048        0.02795        0.00000
C         -3.28376        2.38778        0.00000
C         -1.88738        2.35544        0.00000
C         -1.19396        1.12023       -0.00000
C         -1.98614       -0.05410        0.00000
C          0.32098        1.05813        0.00000
C          1.11318        2.23245        0.00000
C          2.50751        2.15039       -0.00000
C          2.41077       -0.20944        0.00000
C          1.01440       -0.17709       -0.00000
H         -3.97584       -0.87560       -0.00000
H         -3.80317        3.33702       -0.00000
H         -1.38823        3.30873       -0.00000
H         -1.56669       -1.04504       -0.00000
H          0.69373        3.22339       -0.00000
H          3.10288        3.05393        0.00000
H          2.93018       -1.15868       -0.00000
H          0.51525       -1.13038        0.00000