18
	Energy:     234.2716335
Zn         2.92945       -4.49147        0.99350
Zn        -1.81564        4.56924       -1.00705
O          3.08506       -2.66440        0.75123
O         -2.00742        2.81378       -0.78046
O         -0.23575        3.67666       -0.64883
O          1.38781       -3.66938        0.65099
C         -0.04507        1.28219       -0.27423
C          1.23555       -1.16315        0.26569
C         -0.71997        2.56042       -0.55723
C          1.90188       -2.44598        0.54815
C          1.34212        1.24097       -0.06729
C          1.97881        0.02523        0.20114
C         -0.15092       -1.12156        0.05879
C         -0.78762        0.09421       -0.20965
H         -1.85925        0.10667       -0.36670
H         -0.74094       -2.02874        0.10478
H          1.93236        2.14798       -0.11322
H          3.05043        0.01305        0.35816
