12
	Energy:     223.2679186
Zn         1.41159       -4.02911        0.51463
Zn        -0.40204        4.09268       -0.51601
O          0.30346       -2.64401        0.35945
O          2.26187       -2.40287        0.27700
O         -1.26039        2.54860       -0.28907
O          0.71201        2.62541       -0.35008
C         -0.05076        0.33692       -0.02685
C          1.14319       -0.26774        0.02259
C         -0.16905        1.79186       -0.21681
C          1.25230       -1.72231        0.21273
H         -0.96338       -0.24361        0.07367
H          2.05708        0.31122       -0.07775
