22
	Energy:      50.1246888
Zn        -4.67029        0.65865        0.36477
Zn        -0.07020        0.88581        1.11428
O         -3.41628        1.88565       -0.02110
O         -3.58721       -0.49801        1.15457
O         -1.32422       -0.34113        1.50028
O         -1.15334        2.04265        0.32483
C         -2.36157        1.43190        0.40709
C         -2.37896        0.11267        1.07219
C         -3.97372       -1.71602        1.69938
C         -0.76693        3.26093       -0.21942
C         -2.84668       -2.53705        2.32784
H         -4.44266       -2.32304        0.89645
H         -4.74035       -1.52081        2.47863
H         -2.08004       -2.79145        1.56582
H         -3.26256       -3.48479        2.73023
H         -2.38153       -1.97903        3.16772
C         -1.89417        4.08249       -0.84685
H         -0.00055        3.06618       -0.99903
H         -0.29772        3.86744        0.58374
H         -2.35967        3.52517       -1.68699
H         -1.47839        5.03054       -1.24863
H         -2.66049        4.33631       -0.08432
