20
	Energy:      26.5799274
Zn        -3.45246       -1.19460       -0.88096
Zn         4.35189       -0.46603        0.60032
O         -2.14099       -0.04504       -0.68901
O         -2.72942       -2.78048       -0.65206
O         -1.12444       -4.23128       -0.25870
O          3.62885        1.11985        0.37140
O          2.02387        2.57065       -0.02199
O          3.04041       -1.61558        0.40834
C         -0.88298       -0.46042       -0.42070
C         -0.55863       -1.83402       -0.28129
C          0.12092        0.51048       -0.27879
C          1.45806        0.17339        0.00061
C          1.78241       -1.20021        0.14002
C          0.77852       -2.17111       -0.00189
H          1.05985       -3.21096        0.11062
H         -0.16042        1.55033       -0.39130
C         -1.54525       -2.95941       -0.41126
C          2.44468        1.29878        0.13058
H         -2.36223        0.89267       -0.78413
H          3.26166       -2.55330        0.50347
