18
	Energy:     300.3043292
Zn        -0.02738        6.51272        0.07678
Zn         0.24340       -5.62662       -0.13082
O         -0.74815       -4.14729       -0.10805
O          1.22460       -4.05815       -0.10165
O         -1.01383        5.02998        0.04875
O          0.95922        4.94770        0.05219
C          0.01050        4.18161        0.03662
C          0.27334       -3.29539       -0.09100
C          1.16316        1.91535        0.00045
C          0.81234        0.57165       -0.02349
C         -0.52164        0.31423       -0.03121
C         -0.87258       -1.02944       -0.05510
S          1.68147       -0.86301       -0.04594
S         -1.39068        1.74891       -0.00872
C          0.01510        2.71625        0.01138
C          0.27490       -1.83023       -0.06597
H         -1.88931       -1.39976       -0.06394
H          2.17992        2.28557        0.00934
